# Packages
 &PACKAGES
 useCal         = .TRUE.,
 useEXF         = .TRUE.,
# useDiagnostics = .TRUE.,
 useICEBERG     = .TRUE.,
 &
