
 &PTRACERS_PARM01
 PTRACERS_numInUse=1,
 PTRACERS_initialFile='DYE_IC',
 &
